# generated using pymatgen
data_CuH2(C3O2)2
_symmetry_space_group_name_H-M   'P 1'
_cell_length_a   18.59490000
_cell_length_b   18.59493432
_cell_length_c   18.59500000
_cell_angle_alpha   89.99975933
_cell_angle_beta   120.00010000
_cell_angle_gamma   120.00041684
_symmetry_Int_Tables_number   1
_chemical_formula_structural   CuH2(C3O2)2
_chemical_formula_sum   'Cu12 H24 C72 O48'
_cell_volume   4546.39536221
_cell_formula_units_Z   12
loop_
 _symmetry_equiv_pos_site_id
 _symmetry_equiv_pos_as_xyz
  1  'x, y, z'
loop_
 _atom_site_type_symbol
 _atom_site_label
 _atom_site_symmetry_multiplicity
 _atom_site_fract_x
 _atom_site_fract_y
 _atom_site_fract_z
 _atom_site_occupancy
  Cu  Cu0  1  0.00000000  0.00000000  0.43480000  1.0
  Cu  Cu1  1  0.99999000  0.56519000  0.00000000  1.0
  Cu  Cu2  1  0.56520000  0.56520000  0.00000000  1.0
  Cu  Cu3  1  0.56519000  0.99999000  0.56520000  1.0
  Cu  Cu4  1  0.56520000  0.00000000  1.00000000  1.0
  Cu  Cu5  1  0.56520000  0.56520000  0.56520000  1.0
  Cu  Cu6  1  0.00000000  0.00000000  0.56520000  1.0
  Cu  Cu7  1  0.00001000  0.43481000  0.00000000  1.0
  Cu  Cu8  1  0.43480000  0.43480000  0.00000000  1.0
  Cu  Cu9  1  0.43481000  0.00001000  0.43480000  1.0
  Cu  Cu10  1  0.43480000  0.00000000  1.00000000  1.0
  Cu  Cu11  1  0.43480000  0.43480000  0.43480000  1.0
  H  H12  1  0.76270000  0.73462000  0.26539000  1.0
  H  H13  1  0.76271000  0.02809000  0.49732000  1.0
  H  H14  1  0.23730000  0.73462000  0.26538000  1.0
  H  H15  1  0.23730000  0.50269000  0.97192000  1.0
  H  H16  1  0.46923000  0.73461000  0.97192000  1.0
  H  H17  1  0.53077000  0.50269000  0.26538000  1.0
  H  H18  1  0.46923000  0.73462000  0.49731000  1.0
  H  H19  1  0.53078000  0.02809000  0.26538000  1.0
  H  H20  1  0.76270000  0.02808000  0.26538000  1.0
  H  H21  1  0.23730000  0.73462000  0.97192000  1.0
  H  H22  1  0.23731000  0.50269000  0.26538000  1.0
  H  H23  1  0.76270000  0.73462000  0.49732000  1.0
  H  H24  1  0.23729000  0.26538000  0.50268000  1.0
  H  H25  1  0.23730000  0.97192000  0.73462000  1.0
  H  H26  1  0.76270000  0.26538000  0.02809000  1.0
  H  H27  1  0.76269000  0.49731000  0.73462000  1.0
  H  H28  1  0.53076000  0.26538000  0.50269000  1.0
  H  H29  1  0.46923000  0.49732000  0.73462000  1.0
  H  H30  1  0.53077000  0.26539000  0.02809000  1.0
  H  H31  1  0.46922000  0.97191000  0.73462000  1.0
  H  H32  1  0.23729000  0.97191000  0.50268000  1.0
  H  H33  1  0.76270000  0.26538000  0.73462000  1.0
  H  H34  1  0.76269000  0.49731000  0.02809000  1.0
  H  H35  1  0.23729000  0.26538000  0.73462000  1.0
  C  C36  1  0.72985000  0.70015000  0.29985000  1.0
  C  C37  1  0.72985000  0.02970000  0.43001000  1.0
  C  C38  1  0.27014000  0.70015000  0.29985000  1.0
  C  C39  1  0.27014000  0.56999000  0.97030000  1.0
  C  C40  1  0.40030000  0.70015000  0.97030000  1.0
  C  C41  1  0.59970000  0.57000000  0.29985000  1.0
  C  C42  1  0.40030000  0.70015000  0.43001000  1.0
  C  C43  1  0.59969000  0.02970000  0.29985000  1.0
  C  C44  1  0.72985000  0.02970000  0.29985000  1.0
  C  C45  1  0.27014000  0.70015000  0.97030000  1.0
  C  C46  1  0.27015000  0.57000000  0.29985000  1.0
  C  C47  1  0.72985000  0.70015000  0.43001000  1.0
  C  C48  1  0.27015000  0.29985000  0.56999000  1.0
  C  C49  1  0.27015000  0.97030000  0.70015000  1.0
  C  C50  1  0.72986000  0.29985000  0.02970000  1.0
  C  C51  1  0.72985000  0.43000000  0.70015000  1.0
  C  C52  1  0.59970000  0.29985000  0.56999000  1.0
  C  C53  1  0.40030000  0.43000000  0.70015000  1.0
  C  C54  1  0.59970000  0.29985000  0.02970000  1.0
  C  C55  1  0.40031000  0.97030000  0.70015000  1.0
  C  C56  1  0.27015000  0.97030000  0.56999000  1.0
  C  C57  1  0.72986000  0.29985000  0.70015000  1.0
  C  C58  1  0.72986000  0.43001000  0.02970000  1.0
  C  C59  1  0.27015000  0.29985000  0.70015000  1.0
  C  C60  1  0.86158000  0.83775000  0.43079000  1.0
  C  C61  1  0.86158000  0.02383000  0.43079000  1.0
  C  C62  1  0.13842000  0.56921000  0.16225000  1.0
  C  C63  1  0.13842000  0.56921000  0.97617000  1.0
  C  C64  1  0.40696000  0.56921000  0.97617000  1.0
  C  C65  1  0.59304000  0.56921000  0.16225000  1.0
  C  C66  1  0.40696000  0.83775000  0.43079000  1.0
  C  C67  1  0.59304000  0.02383000  0.43079000  1.0
  C  C68  1  0.59304000  0.02383000  0.16225000  1.0
  C  C69  1  0.40696000  0.83775000  0.97617000  1.0
  C  C70  1  0.40696000  0.56921000  0.43079000  1.0
  C  C71  1  0.59304000  0.56921000  0.43079000  1.0
  C  C72  1  0.13842000  0.16225000  0.56921000  1.0
  C  C73  1  0.13842000  0.97617000  0.56921000  1.0
  C  C74  1  0.86158000  0.43079000  0.02383000  1.0
  C  C75  1  0.86158000  0.43079000  0.83775000  1.0
  C  C76  1  0.59304000  0.43079000  0.56921000  1.0
  C  C77  1  0.40696000  0.43079000  0.56921000  1.0
  C  C78  1  0.59304000  0.16225000  0.02383000  1.0
  C  C79  1  0.40696000  0.97617000  0.83775000  1.0
  C  C80  1  0.40696000  0.97617000  0.56921000  1.0
  C  C81  1  0.59304000  0.16225000  0.56921000  1.0
  C  C82  1  0.59304000  0.43079000  0.02383000  1.0
  C  C83  1  0.40696000  0.43079000  0.83775000  1.0
  C  C84  1  0.77303000  0.74340000  0.38652000  1.0
  C  C85  1  0.77303000  0.02963000  0.38652000  1.0
  C  C86  1  0.22696000  0.61348000  0.25660000  1.0
  C  C87  1  0.22696000  0.61348000  0.97037000  1.0
  C  C88  1  0.35688000  0.61348000  0.97037000  1.0
  C  C89  1  0.64311000  0.61348000  0.25660000  1.0
  C  C90  1  0.35688000  0.74340000  0.38652000  1.0
  C  C91  1  0.64311000  0.02963000  0.38652000  1.0
  C  C92  1  0.64311000  0.02963000  0.25660000  1.0
  C  C93  1  0.35688000  0.74340000  0.97037000  1.0
  C  C94  1  0.35688000  0.61348000  0.38652000  1.0
  C  C95  1  0.64311000  0.61348000  0.38652000  1.0
  C  C96  1  0.22697000  0.25660000  0.61348000  1.0
  C  C97  1  0.22697000  0.97037000  0.61348000  1.0
  C  C98  1  0.77304000  0.38652000  0.02963000  1.0
  C  C99  1  0.77304000  0.38652000  0.74341000  1.0
  C  C100  1  0.64312000  0.38652000  0.61348000  1.0
  C  C101  1  0.35689000  0.38652000  0.61348000  1.0
  C  C102  1  0.64312000  0.25660000  0.02963000  1.0
  C  C103  1  0.35689000  0.97037000  0.74340000  1.0
  C  C104  1  0.35689000  0.97037000  0.61348000  1.0
  C  C105  1  0.64312000  0.25660000  0.61348000  1.0
  C  C106  1  0.64312000  0.38652000  0.02963000  1.0
  C  C107  1  0.35689000  0.38652000  0.74341000  1.0
  O  O108  1  0.89491000  0.87441000  0.38627000  1.0
  O  O109  1  0.89492000  0.02051000  0.50865000  1.0
  O  O110  1  0.10507000  0.61372000  0.12559000  1.0
  O  O111  1  0.10509000  0.49136000  0.97950000  1.0
  O  O112  1  0.48814000  0.61373000  0.97950000  1.0
  O  O113  1  0.51185000  0.49135000  0.12559000  1.0
  O  O114  1  0.48813000  0.87441000  0.50864000  1.0
  O  O115  1  0.51187000  0.02051000  0.38628000  1.0
  O  O116  1  0.63423000  0.02050000  0.12558000  1.0
  O  O117  1  0.36576000  0.87441000  0.97950000  1.0
  O  O118  1  0.36578000  0.49136000  0.38627000  1.0
  O  O119  1  0.63423000  0.61373000  0.50865000  1.0
  O  O120  1  0.10507000  0.12558000  0.49135000  1.0
  O  O121  1  0.10509000  0.97950000  0.61373000  1.0
  O  O122  1  0.89493000  0.38628000  0.02051000  1.0
  O  O123  1  0.89491000  0.50864000  0.87441000  1.0
  O  O124  1  0.51186000  0.38627000  0.49135000  1.0
  O  O125  1  0.48814000  0.50864000  0.61373000  1.0
  O  O126  1  0.51186000  0.12559000  0.02050000  1.0
  O  O127  1  0.48814000  0.97949000  0.87441000  1.0
  O  O128  1  0.36577000  0.97950000  0.49135000  1.0
  O  O129  1  0.63423000  0.12558000  0.61373000  1.0
  O  O130  1  0.63424000  0.50865000  0.02050000  1.0
  O  O131  1  0.36577000  0.38627000  0.87441000  1.0
  O  O132  1  0.10509000  0.12559000  0.61373000  1.0
  O  O133  1  0.10508000  0.97949000  0.49135000  1.0
  O  O134  1  0.89493000  0.38628000  0.87441000  1.0
  O  O135  1  0.89491000  0.50864000  0.02050000  1.0
  O  O136  1  0.51186000  0.38627000  0.02050000  1.0
  O  O137  1  0.48815000  0.50865000  0.87441000  1.0
  O  O138  1  0.51187000  0.12559000  0.49136000  1.0
  O  O139  1  0.48813000  0.97949000  0.61373000  1.0
  O  O140  1  0.36577000  0.97950000  0.87442000  1.0
  O  O141  1  0.63424000  0.12559000  0.02050000  1.0
  O  O142  1  0.63422000  0.50864000  0.61373000  1.0
  O  O143  1  0.36577000  0.38627000  0.49136000  1.0
  O  O144  1  0.89492000  0.87441000  0.50865000  1.0
  O  O145  1  0.89491000  0.02050000  0.38627000  1.0
  O  O146  1  0.10507000  0.61372000  0.97949000  1.0
  O  O147  1  0.10509000  0.49136000  0.12559000  1.0
  O  O148  1  0.48813000  0.61372000  0.50865000  1.0
  O  O149  1  0.51186000  0.49136000  0.38627000  1.0
  O  O150  1  0.48814000  0.87441000  0.97950000  1.0
  O  O151  1  0.51186000  0.02051000  0.12559000  1.0
  O  O152  1  0.63423000  0.02050000  0.50865000  1.0
  O  O153  1  0.36577000  0.87442000  0.38627000  1.0
  O  O154  1  0.36577000  0.49136000  0.97950000  1.0
  O  O155  1  0.63423000  0.61373000  0.12559000  1.0
