# generated using pymatgen
data_Zr3H12(C3O2)8
_symmetry_space_group_name_H-M   'P 1'
_cell_length_a   14.63739321
_cell_length_b   14.63739321
_cell_length_c   14.63739321
_cell_angle_alpha   60.00000000
_cell_angle_beta   60.00000000
_cell_angle_gamma   60.00000000
_symmetry_Int_Tables_number   1
_chemical_formula_structural   Zr3H12(C3O2)8
_chemical_formula_sum   'Zr6 H24 C48 O32'
_cell_volume   2217.56429948
_cell_formula_units_Z   2
loop_
 _symmetry_equiv_pos_site_id
 _symmetry_equiv_pos_as_xyz
  1  'x, y, z'
loop_
 _atom_site_type_symbol
 _atom_site_label
 _atom_site_symmetry_multiplicity
 _atom_site_fract_x
 _atom_site_fract_y
 _atom_site_fract_z
 _atom_site_occupancy
  C  C0  1  1.00000000  0.69280000  0.00000000  1.0
  C  C1  1  0.30720000  0.00000000  0.69280000  1.0
  C  C2  1  1.00000000  0.30720000  0.00000000  1.0
  C  C3  1  0.69280000  0.00000000  0.30720000  1.0
  C  C4  1  0.69280000  0.00000000  0.00000000  1.0
  C  C5  1  0.00000000  0.69280000  0.30720000  1.0
  C  C6  1  0.30720000  0.00000000  0.00000000  1.0
  C  C7  1  0.00000000  0.30720000  0.69280000  1.0
  C  C8  1  1.00000000  0.00000000  0.69280000  1.0
  C  C9  1  0.69280000  0.30720000  0.00000000  1.0
  C  C10  1  1.00000000  0.00000000  0.30720000  1.0
  C  C11  1  0.30720000  0.69280000  0.00000000  1.0
  C  C12  1  1.00000000  0.59000000  0.00000000  1.0
  C  C13  1  0.41000000  0.00000000  0.59000000  1.0
  C  C14  1  1.00000000  0.41000000  0.00000000  1.0
  C  C15  1  0.59000000  0.00000000  0.41000000  1.0
  C  C16  1  0.59000000  0.00000000  0.00000000  1.0
  C  C17  1  1.00000000  0.59000000  0.41000000  1.0
  C  C18  1  0.41000000  0.00000000  0.00000000  1.0
  C  C19  1  0.00000000  0.41000000  0.59000000  1.0
  C  C20  1  1.00000000  0.00000000  0.59000000  1.0
  C  C21  1  0.59000000  0.41000000  0.00000000  1.0
  C  C22  1  1.00000000  0.00000000  0.41000000  1.0
  C  C23  1  0.41000000  0.59000000  0.00000000  1.0
  C  C24  1  0.91690000  0.54810000  0.08310000  1.0
  C  C25  1  0.45190000  0.08310000  0.54810000  1.0
  C  C26  1  0.08310000  0.45190000  0.91690000  1.0
  C  C27  1  0.54810000  0.91690000  0.45190000  1.0
  C  C28  1  0.54810000  0.08310000  0.91690000  1.0
  C  C29  1  0.08310000  0.54810000  0.45190000  1.0
  C  C30  1  0.45190000  0.91690000  0.08310000  1.0
  C  C31  1  0.91690000  0.45190000  0.54810000  1.0
  C  C32  1  0.08310000  0.91690000  0.54810000  1.0
  C  C33  1  0.54810000  0.45190000  0.08310000  1.0
  C  C34  1  0.91690000  0.08310000  0.45190000  1.0
  C  C35  1  0.45190000  0.54810000  0.91690000  1.0
  C  C36  1  0.54810000  0.45190000  0.91690000  1.0
  C  C37  1  0.08310000  0.91690000  0.45190000  1.0
  C  C38  1  0.45190000  0.54810000  0.08310000  1.0
  C  C39  1  0.91690000  0.08310000  0.54810000  1.0
  C  C40  1  0.54810000  0.91690000  0.08310000  1.0
  C  C41  1  0.08310000  0.45190000  0.54810000  1.0
  C  C42  1  0.45190000  0.08310000  0.91690000  1.0
  C  C43  1  0.91690000  0.54810000  0.45190000  1.0
  C  C44  1  0.54810000  0.08310000  0.45190000  1.0
  C  C45  1  0.08310000  0.54810000  0.91690000  1.0
  C  C46  1  0.45190000  0.91690000  0.54810000  1.0
  C  C47  1  0.91690000  0.45190000  0.08310000  1.0
  H  H48  1  0.58711000  0.85355000  0.41289000  1.0
  H  H49  1  0.14645000  0.41289000  0.85355000  1.0
  H  H50  1  0.41289000  0.14645000  0.58711000  1.0
  H  H51  1  0.85355000  0.58711000  0.14645000  1.0
  H  H52  1  0.85355000  0.41289000  0.58711000  1.0
  H  H53  1  0.41289000  0.85355000  0.14645000  1.0
  H  H54  1  0.14645000  0.58711000  0.41289000  1.0
  H  H55  1  0.58711000  0.14645000  0.85355000  1.0
  H  H56  1  0.41289000  0.58711000  0.85355000  1.0
  H  H57  1  0.85355000  0.14645000  0.41289000  1.0
  H  H58  1  0.58711000  0.41289000  0.14645000  1.0
  H  H59  1  0.14645000  0.85355000  0.58711000  1.0
  H  H60  1  0.85355000  0.14645000  0.58711000  1.0
  H  H61  1  0.41289000  0.58711000  0.14645000  1.0
  H  H62  1  0.14645000  0.85355000  0.41289000  1.0
  H  H63  1  0.58711000  0.41289000  0.85355000  1.0
  H  H64  1  0.85355000  0.58711000  0.41289000  1.0
  H  H65  1  0.41289000  0.14645000  0.85355000  1.0
  H  H66  1  0.14645000  0.41289000  0.58711000  1.0
  H  H67  1  0.58711000  0.85355000  0.14645000  1.0
  H  H68  1  0.85355000  0.41289000  0.14645000  1.0
  H  H69  1  0.41289000  0.85355000  0.58711000  1.0
  H  H70  1  0.14645000  0.58711000  0.85355000  1.0
  H  H71  1  0.58711000  0.14645000  0.41289000  1.0
  O  O72  1  0.92483000  0.73423000  0.07517000  1.0
  O  O73  1  0.26577000  0.07517000  0.73423000  1.0
  O  O74  1  0.07517000  0.26577000  0.92483000  1.0
  O  O75  1  0.73423000  0.92483000  0.26577000  1.0
  O  O76  1  0.73423000  0.07517000  0.92483000  1.0
  O  O77  1  0.07517000  0.73423000  0.26577000  1.0
  O  O78  1  0.26577000  0.92483000  0.07517000  1.0
  O  O79  1  0.92483000  0.26577000  0.73423000  1.0
  O  O80  1  0.07517000  0.92483000  0.73423000  1.0
  O  O81  1  0.73423000  0.26577000  0.07517000  1.0
  O  O82  1  0.92483000  0.07517000  0.26577000  1.0
  O  O83  1  0.26577000  0.73423000  0.92483000  1.0
  O  O84  1  0.73423000  0.26577000  0.92483000  1.0
  O  O85  1  0.07517000  0.92483000  0.26577000  1.0
  O  O86  1  0.26577000  0.73423000  0.07517000  1.0
  O  O87  1  0.92483000  0.07517000  0.73423000  1.0
  O  O88  1  0.73423000  0.92483000  0.07517000  1.0
  O  O89  1  0.07517000  0.26577000  0.73423000  1.0
  O  O90  1  0.26577000  0.07517000  0.92483000  1.0
  O  O91  1  0.92483000  0.73423000  0.26577000  1.0
  O  O92  1  0.73423000  0.07517000  0.26577000  1.0
  O  O93  1  0.07517000  0.73423000  0.92483000  1.0
  O  O94  1  0.26577000  0.92483000  0.73423000  1.0
  O  O95  1  0.92483000  0.26577000  0.07517000  1.0
  O  O96  1  0.94390000  0.94390000  0.16830000  1.0
  O  O97  1  0.94390000  0.16830000  0.94390000  1.0
  O  O98  1  0.16830000  0.94390000  0.94390000  1.0
  O  O99  1  0.94390000  0.94390000  0.94390000  1.0
  O  O100  1  0.05610000  0.05610000  0.83170000  1.0
  O  O101  1  0.05610000  0.83170000  0.05610000  1.0
  O  O102  1  0.05610000  0.05610000  0.05610000  1.0
  O  O103  1  0.83170000  0.05610000  0.05610000  1.0
  Zr  Zr104  1  0.88011000  0.88011000  0.11989000  1.0
  Zr  Zr105  1  0.11989000  0.11989000  0.88011000  1.0
  Zr  Zr106  1  0.88011000  0.11989000  0.88011000  1.0
  Zr  Zr107  1  0.11989000  0.88011000  0.11989000  1.0
  Zr  Zr108  1  0.11989000  0.88011000  0.88011000  1.0
  Zr  Zr109  1  0.88011000  0.11989000  0.11989000  1.0
